32

N	7.5373515516	4.6351535409	0.267213142
C	6.203228811	4.5912041908	0.0873598576
C	5.4027791001	3.6573672412	0.814086661
C	4.0439955072	3.6228589398	0.6693246368
C	3.3846745744	4.5322455889	-0.1870149039
C	4.2069417475	5.4336934534	-0.8951484888
C	5.5717154071	5.4718514441	-0.8012977793
O	3.6325674166	6.3306738815	-1.7271801887
C	2.3005743891	6.3745586918	-1.8474372657
C	1.4882700171	5.4420861274	-1.1049504848
N	2.0293166559	4.5492118828	-0.3178006078
C	0.0397827501	5.5652331859	-1.2636421471
C	-0.8310647799	4.7123641429	-0.5795463459
C	-2.1998995292	4.8912140409	-0.6564460442
C	-2.7298874908	5.9136342463	-1.4482277589
C	-1.8865734403	6.7420257774	-2.1632414528
C	-0.4964880344	6.583337609	-2.0791340632
C	0.4122782374	7.4450813118	-2.8360032127
C	1.8051875433	7.3083879182	-2.6879532832
N	-0.0030558546	8.3607930706	-3.6666847664
H	7.9282273023	3.761568251	0.6401066363
H	8.0757850279	5.1617436592	-0.4185488413
H	5.9015283135	2.9452960311	1.4570794066
H	3.4476111667	2.8853352525	1.1946324713
H	6.1377616628	6.1466524553	-1.4334431132
H	-0.4034098045	3.9345272343	0.041720584
H	-2.8632064444	4.2670640402	-0.0661136193
H	-3.8025177261	6.0722390072	-1.492831946
H	-2.3149219464	7.5187967395	-2.7877869577
H	2.4668852667	7.9501374337	-3.253636073
H	0.6905847468	8.7938621505	-4.3025345738
H	-0.9815111626	8.5288719194	-3.9270806997

