262

O	1.616535551	0.9522137293	0.1103499826
O	6.0977562191	2.0893402395	-0.6515654218
N	-2.9450387837	-0.0619926792	0.9845160272
N	2.314552969	-1.8047784104	0.2608652014
C	-1.6661679456	-0.4765368123	0.8095346481
C	0.6650202282	0.0036492985	0.3628238018
C	3.2329231173	-0.8536589209	0.0608520284
C	1.0291961934	-1.3655501787	0.4303877393
C	-3.2871784461	1.3542194479	1.0762233667
C	-4.026996512	-1.0023853875	1.271671087
C	-0.6266196076	0.4478630821	0.5311613423
C	4.6283580041	-1.2097159732	-0.0889150956
C	2.9202035816	0.5410338372	-0.026197135
C	-1.3129683006	-1.8601617569	0.8838033788
C	5.6068604124	-0.2181280167	-0.3402871386
C	-0.0215805938	-2.2783043696	0.6888193174
C	3.8460155697	1.5173026028	-0.2593940408
C	5.2451954894	1.2094952173	-0.4393223282
C	-4.1299003128	-1.3628830679	2.7531580061
C	5.0364353091	-2.5480991036	0.038223603
C	6.9509373801	-0.5852050399	-0.4428757648
C	6.3730657037	-2.8891175264	-0.0430911742
C	7.3418003225	-1.9046610543	-0.2782431591
H	-4.1772279401	1.4125732281	1.7035056235
H	-4.9560209248	-0.539913355	0.9206046628
H	-3.8875851044	-1.9017499592	0.6675635698
H	-0.8163735322	1.5115339728	0.4658451125
H	-2.0629659448	-2.6062306922	1.1009346259
H	0.1998461569	-3.3391032245	0.7360803038
H	3.5472491999	2.5589197464	-0.278044211
H	-4.3790289044	-0.485319457	3.3546238511
H	-4.8829807342	-2.1439102835	2.8940155726
H	-3.1721061987	-1.7355814882	3.1232371097
H	4.2845075626	-3.3051257459	0.21832267
H	7.6745860579	0.2002434236	-0.6356437587
H	6.6633114748	-3.9281476772	0.0830681853
H	8.3945856265	-2.1660840718	-0.3023046368
C	-3.5534356031	2.0104337158	-0.271860112
H	-2.6361740932	2.0805013735	-0.8565450458
H	-4.2853660433	1.4598387645	-0.8675520518
H	-3.9082794978	3.031193449	-0.1070874209
H	-2.5017398312	1.9051122581	1.5919221251
S	6.23131	4.772043	1.307059
O	5.835777	4.150047	2.55799
C	6.703477	6.49253	1.673977
C	7.924662	4.263675	0.78824
H	7.49669	6.408421	2.449928
H	8.111441	4.906919	-0.056431
H	7.059861	6.931594	0.733937
H	5.856142	6.996353	2.206341
H	8.716763	4.469592	1.555996
H	7.849214	3.186065	0.451233
S	9.674031	-6.344073	1.084622
O	8.599701	-7.109715	1.726615
C	9.692039	-4.63375	1.761798
C	11.261187	-6.980474	1.783621
H	8.748203	-4.174481	1.444038
H	11.244527	-6.797198	2.883871
H	9.743914	-4.629143	2.831026
H	10.479183	-4.020244	1.339471
H	11.452195	-8.078657	1.585187
H	12.077498	-6.299541	1.408264
S	10.239917	-2.925704	-2.045886
O	10.965773	-3.015951	-0.730559
C	11.491647	-3.273307	-3.352353
C	9.222365	-4.479239	-2.129888
H	11.667027	-4.353476	-3.560182
H	9.673756	-5.314435	-1.619453
H	11.147521	-2.723146	-4.25114
H	12.538774	-2.955553	-2.957583
H	8.191798	-4.340279	-1.707228
H	9.169931	-4.71955	-3.199339
S	-0.630818	5.121479	1.4686
O	-1.735521	4.101998	1.401375
C	-0.40668	5.462703	3.23824
C	0.906148	4.295423	1.104656
H	-1.32188	5.473764	3.845732
H	0.961104	3.429536	1.830702
H	0.250534	4.663839	3.707829
H	0.230308	6.269643	3.221421
H	0.921368	3.96501	0.125188
H	1.649777	5.083738	1.369154
S	4.806343	1.181859	2.968725
O	3.859998	-0.020342	3.032934
C	4.752872	1.969387	4.608026
C	6.517675	0.526956	3.035104
H	4.318006	2.960519	4.398448
H	6.593865	0.015588	4.017848
H	4.087009	1.243976	5.183272
H	5.65454	2.012805	5.147232
H	6.648937	-0.195207	2.199852
H	7.221503	1.332635	2.921591
S	10.155478	0.250908	2.725219
O	11.512627	0.154606	3.387179
C	10.676901	0.131585	0.952855
C	9.424928	-1.412178	2.685128
H	11.169992	-0.852648	0.849587
H	9.123879	-1.596274	3.761159
H	9.868096	0.155569	0.309174
H	11.310618	0.923902	0.679568
H	8.592241	-1.346086	2.002309
H	10.068516	-2.289849	2.404658
S	9.723233	2.739666	-1.761717
O	10.445777	1.734263	-2.61225
C	10.690521	4.295073	-1.978195
C	8.267845	3.18131	-2.783575
H	11.714724	3.957013	-2.367793
H	7.708066	4.05766	-2.414489
H	10.220462	5.09025	-2.585025
H	10.83274	4.628781	-0.944978
H	8.6114	3.380893	-3.812367
H	7.542694	2.396586	-2.836969
S	4.459423	-2.723899	4.910408
O	5.396965	-3.784684	5.374755
C	3.001094	-3.61963	4.154663
C	3.642075	-2.156588	6.460193
H	3.43475	-4.028691	3.240665
H	2.834383	-1.456875	6.203871
H	2.75418	-4.553538	4.686965
H	2.094968	-3.032188	3.888294
H	3.067474	-2.922897	7.017136
H	4.395542	-1.74658	7.157097
S	-3.135093	3.59278	6.218775
O	-3.700544	4.663048	7.089869
C	-4.121895	2.066133	6.718303
C	-3.657133	3.809317	4.492008
H	-3.625106	1.152079	6.186941
H	-4.686119	3.53651	4.312365
H	-4.042296	1.955896	7.853655
H	-5.11723	2.193396	6.332592
H	-3.586646	4.847953	4.174365
H	-3.114013	3.187802	3.768194
S	-5.953067	7.328962	2.369698
O	-5.190893	8.491468	2.864507
C	-4.756266	6.260846	1.588864
C	-6.311132	6.345981	3.854593
H	-4.477027	6.670121	0.608984
H	-6.193093	5.307237	3.58812
H	-3.931906	6.07127	2.241197
H	-5.174519	5.249187	1.424806
H	-5.699455	6.61629	4.680177
H	-7.330977	6.454561	4.218795
S	-0.686258	1.338004	3.614565
O	-1.946647	0.673854	4.028634
C	-0.105421	2.334091	4.979217
C	0.585809	0.090693	4.027889
H	0.987352	2.579509	4.872923
H	0.456541	-0.446111	5.009507
H	-0.721768	3.191918	4.913683
H	-0.219049	1.737213	5.915926
H	0.66642	-0.63804	3.187601
H	1.566694	0.55289	3.993611
S	6.686029	-1.062352	-4.476148
O	5.902277	-0.479879	-5.649772
C	6.55976	-2.839665	-4.712038
C	8.432136	-1.103328	-4.874215
H	7.006483	-3.142544	-5.638014
H	8.779058	-0.1182	-5.192246
H	6.839223	-3.42244	-3.796767
H	5.483453	-3.080552	-4.714049
H	9.109058	-1.37567	-4.029953
H	8.602453	-1.718238	-5.758981
S	-4.546589	2.556605	-4.328944
O	-4.160846	1.310719	-3.604354
C	-4.154819	4.046896	-3.294992
C	-3.198997	2.837562	-5.461666
H	-3.03903	4.267276	-3.168381
H	-3.14164	1.960703	-6.119865
H	-4.649645	4.931183	-3.732327
H	-4.584382	3.932145	-2.267539
H	-3.286811	3.749631	-5.95948
H	-2.349511	2.856046	-4.767158
S	1.610517	-1.422954	-3.07665
O	0.649847	-1.022834	-4.139906
C	1.415369	-3.190828	-2.824754
C	3.194761	-1.445033	-3.902882
H	2.251517	-3.518874	-2.152927
H	3.582886	-0.419187	-3.859517
H	0.555199	-3.320646	-2.24974
H	1.501948	-3.769533	-3.786564
H	3.952317	-2.097538	-3.521399
H	3.035748	-1.716281	-4.970831
S	0.944831	-6.285336	-0.129238
O	-0.388341	-5.693728	0.18692
C	2.227949	-5.43153	0.966199
C	0.937517	-7.818811	0.914923
H	3.204185	-5.910946	0.838645
H	1.878899	-8.331416	0.786901
H	2.368402	-4.423368	0.682917
H	1.813949	-5.462779	1.983918
H	0.810647	-7.604354	1.937232
H	0.09856	-8.459889	0.551093
S	-6.932902	-1.370353	7.664567
O	-5.992192	-0.271618	7.292874
C	-8.673624	-0.668888	7.613289
C	-6.956271	-2.328948	6.143494
H	-8.93596	0.189298	8.237345
H	-6.907099	-1.730145	5.225701
H	-8.806715	-0.117472	6.626318
H	-9.313342	-1.579196	7.561424
H	-6.102674	-3.034952	6.125342
H	-7.871804	-2.885695	6.115115
S	-8.237041	0.151938	-1.344509
O	-8.001014	-0.484528	-0.002012
C	-7.535944	1.815966	-1.264045
C	-6.906214	-0.613158	-2.222608
H	-6.471354	1.712587	-1.126368
H	-6.249129	-1.119031	-1.469308
H	-7.69127	2.374013	-2.179976
H	-7.938354	2.378821	-0.433056
H	-7.257399	-1.292619	-3.06562
H	-6.279734	0.154567	-2.69202
S	-0.027253	3.021049	-2.400129
O	-0.426998	4.048864	-3.404084
C	-0.827023	1.516377	-2.94538
C	1.590663	2.544271	-2.887706
H	-0.533733	0.678096	-2.290941
H	1.725021	1.473651	-2.391665
H	-1.88069	1.63297	-2.750877
H	-0.720507	1.289477	-3.988308
H	1.57009	2.538745	-3.990737
H	2.36084	3.19053	-2.382994
S	-0.321389	-5.74107	5.55597
O	-0.091659	-4.261221	5.341871
C	-1.623045	-6.162193	4.31365
C	1.130139	-6.522787	4.801195
H	-1.718921	-7.244055	4.149539
H	1.311729	-6.150018	3.805363
H	-2.537651	-5.695573	4.623976
H	-1.509548	-5.573104	3.362276
H	2.040795	-6.222786	5.412803
H	1.055971	-7.568397	4.798424
S	-7.681534	1.709306	4.476204
O	-8.101684	3.133654	4.796364
C	-9.214253	0.914153	3.743912
C	-6.669099	1.673183	2.968794
H	-9.176135	-0.190265	3.76303
H	-6.923323	0.709117	2.425932
H	-10.179926	1.270791	4.177991
H	-9.350592	1.314526	2.673559
H	-7.020892	2.575775	2.418354
H	-5.618761	1.809887	3.183914
S	-6.449902	-4.821826	1.474586
O	-5.714128	-4.337243	2.690753
C	-7.935255	-5.671126	2.190438
C	-7.159273	-3.276217	0.906537
H	-8.538535	-6.000998	1.291918
H	-7.727695	-2.773353	1.648777
H	-7.634868	-6.537291	2.817173
H	-8.422853	-4.859673	2.816127
H	-6.365353	-2.636971	0.59665
H	-7.817565	-3.507649	0.149402
S	-3.138404	-3.163588	-1.8369
O	-4.588604	-3.27339	-2.29497
C	-2.134628	-4.32522	-2.868221
C	-2.498905	-1.591768	-2.420251
H	-1.261205	-4.695805	-2.302645
H	-2.418285	-1.589532	-3.467882
H	-2.756097	-5.212222	-3.210492
H	-1.811499	-3.831145	-3.749362
H	-3.076247	-0.765582	-2.064835
H	-1.474743	-1.587837	-2.068734
